SLAB
PRIMVEC
 7.83488455690319 0.00000000000000 0.00000000000000
 3.91744227845159 6.78520906199654 0.00000000000000
 0.00000000000000 0.00000000000000 28.66192742112482
PRIMCOORD
 66 1
 29     1.30581409300000     0.75391211800000     2.00000000000000
 29     3.91744227800000     0.75391211800000     2.00000000000000
 29     6.52907046400000     0.75391211800000     2.00000000000000
 29     2.61162818600000     3.01564847200000     2.00000000000000
 29     5.22325637100000     3.01564847200000     2.00000000000000
 29     7.83488455700000     3.01564847200000     2.00000000000000
 29     3.91744227800000     5.27738482600000     2.00000000000000
 29     6.52907046400000     5.27738482600000     2.00000000000000
 29     9.14069865000000     5.27738482600000     2.00000000000000
 29     0.00000000000000     1.50782423600000     4.13238548400000
 29     2.61162818600000     1.50782423600000     4.13238548400000
 29     5.22325637100000     1.50782423600000     4.13238548400000
 29     1.30581409300000     3.76956059000000     4.13238548400000
 29     3.91744227800000     3.76956059000000     4.13238548400000
 29     6.52907046400000     3.76956059000000     4.13238548400000
 29     2.61162818600000     6.03129694400000     4.13238548400000
 29     5.22325637100000     6.03129694400000     4.13238548400000
 29     7.83488455700000     6.03129694400000     4.13238548400000
 29     0.00000000000000     0.00000000000000     6.26477096800000
 29     2.61162818600000     0.00000000000000     6.26477096800000
 29     5.22325637100000     0.00000000000000     6.26477096800000
 29     1.30581409300000     2.26173635400000     6.26477096800000
 29     3.91744227800000     2.26173635400000     6.26477096800000
 29     6.52907046400000     2.26173635400000     6.26477096800000
 29     2.61162818600000     4.52347270800000     6.26477096800000
 29     5.22325637100000     4.52347270800000     6.26477096800000
 29     7.83488455700000     4.52347270800000     6.26477096800000
 29     1.30580821900000     0.75390872600000     8.37637729600000
 29     3.91744227800000     0.75390487800000     8.37635694500000
 29     6.52907633800000     0.75390872600000     8.37637729600000
 29     2.61162191500000     3.01565209200000     8.37635694500000
 29     5.22326264200000     3.01565209200000     8.37635694500000
 29     7.83488455700000     3.01564934900000     8.37638674300000
 29     3.91744227800000     5.27739160900000     8.37637729600000
 29     6.52907122300000     5.27738438800000     8.37638674300000
 29     9.14069789100000     5.27738438800000     8.37638674300000
 29     0.00000000000000     1.50781256500000    10.48898317500000
 29     2.61162542000000     1.50782263900000    10.48892399900000
 29     5.22325913700000     1.50782263900000    10.48892399900000
 29     1.30582131100000     3.76955642200000    10.48895514900000
 29     3.91744227800000     3.76956378400000    10.48892399900000
 29     6.52906324600000     3.76955642200000    10.48895514900000
 29     2.61163829300000     6.03130277900000    10.48898317500000
 29     5.22324626400000     6.03130277900000    10.48898317500000
 29     7.83488455700000     6.03130527900000    10.48895514900000
 29     0.00000000000000     0.00000000000000    12.60143230900000
 29     2.61162802300000     0.00000422900000    12.60133409300000
 29     5.22325653400000     0.00000422900000    12.60133409300000
 29     1.30581767400000     2.26173409900000    12.60133409300000
 29     3.91744227800000     2.26173635400000    12.60127810600000
 29     6.52906688300000     2.26173409900000    12.60133409300000
 29     2.61163192900000     4.52347073400000    12.60133409300000
 29     5.22325262700000     4.52347073400000    12.60133409300000
 29     7.83488455700000     4.52347270800000    12.60129156400000
  6     5.14548727528149     3.10252243727233    16.20098519100000
  6     3.95379145329269     2.37252176842017    16.20098467600000
  6     2.72573692479834     3.03954084860291    16.20098510900000
  6     2.68939728071851     4.43660513072767    16.20098519100000
  6     3.88109310270731     5.16660579957983    16.20098467600000
  6     5.10914763120166     4.49958671939709    16.20098510900000
  1     6.10334274932112     2.58211587061693    16.20159811000000
  1     3.98214815141711     1.28277705430655    16.20159845200000
  1     1.79624430977986     2.47000751813085    16.20159812200000
  1     1.73154180667888     4.95701169738307    16.20159811000000
  1     3.85273640458289     6.25635051369345    16.20159845200000
  1     6.03864024622014     5.06912004986915    16.20159812200000
