CRYSTAL
PRIMVEC
 7.83488455690319 0.00000000000000 0.00000000000000
 3.91744227845159 6.78520906199654 0.00000000000000
 0.00000000000000 0.00000000000000 28.66192742112482
PRIMCOORD
 12 1
  6     5.14548727528149     3.10252243727233    15.20098519100000
  6     3.95379145329269     2.37252176842017    15.20098467600000
  6     2.72573692479834     3.03954084860291    15.20098510900000
  6     2.68939728071851     4.43660513072767    15.20098519100000
  6     3.88109310270731     5.16660579957983    15.20098467600000
  6     5.10914763120166     4.49958671939709    15.20098510900000
  1     6.10334274932112     2.58211587061693    15.20159811000000
  1     3.98214815141711     1.28277705430655    15.20159845200000
  1     1.79624430977986     2.47000751813085    15.20159812200000
  1     1.73154180667888     4.95701169738307    15.20159811000000
  1     3.85273640458289     6.25635051369345    15.20159845200000
  1     6.03864024622014     5.06912004986915    15.20159812200000
